/*---------------------------------------------------------------------------*\
| =========                 |                                                 |
| \\      /  F ield         | OpenFOAM: The Open Source CFD Toolbox           |
|  \\    /   O peration     | Version:  2.3.0                                 |
|   \\  /    A nd           | Web:      www.OpenFOAM.org                      |
|    \\/     M anipulation  |                                                 |
\*---------------------------------------------------------------------------*/
Build  : 2.3.0-f5222ca19ce6
Exec   : iInterFoam101SP -parallel
Date   : Aug 27 2016
Time   : 16:33:53
Host   : "ese-tesla3"
PID    : 10069
Case   : /data2/Lukas/images/beadpack_small/beadpack/beadpack-1-X
nProcs : 32
Slaves : 
31
(
"ese-tesla3.10070"
"ese-tesla3.10071"
"ese-tesla3.10072"
"ese-tesla3.10073"
"ese-tesla3.10074"
"ese-tesla3.10075"
"ese-tesla3.10076"
"ese-tesla3.10077"
"ese-tesla3.10078"
"ese-tesla3.10079"
"ese-tesla3.10080"
"ese-tesla3.10081"
"ese-tesla3.10082"
"ese-tesla3.10083"
"ese-tesla3.10084"
"ese-tesla3.10085"
"ese-tesla3.10087"
"ese-tesla3.10088"
"ese-tesla3.10089"
"ese-tesla3.10090"
"ese-tesla3.10091"
"ese-tesla3.10092"
"ese-tesla3.10093"
"ese-tesla3.10094"
"ese-tesla3.10095"
"ese-tesla3.10096"
"ese-tesla3.10097"
"ese-tesla3.10098"
"ese-tesla3.10099"
"ese-tesla3.10100"
"ese-tesla3.10101"
)

Pstream initialized with:
    floatTransfer      : 0
    nProcsSimpleSum    : 0
    commsType          : nonBlocking
    polling iterations : 0
sigFpe : Enabling floating point exception trapping (FOAM_SIGFPE).
fileModificationChecking : Monitoring run-time modified files using timeStampMaster
allowSystemOperations : Disallowing user-supplied system call operations

// * * * * * * * * * * * * * * * * * * * * * * * * * * * * * * * * * * * * * //
Create time

Create mesh for time = 0


PIMPLE: Operating solver in PISO mode

Reading field U

Reading field p

Reading/calculating face flux field phi

Reading transportProperties

time step continuity errors : sum local = 2.39984e-12, global = -1.41928e-14, cumulative = -1.41928e-14
GAMG:  Solving for pcorr, Initial residual = 0.999842, Final residual = 9.6755e-06, No Iterations 26
time step continuity errors : sum local = 2.32233e-17, global = -1.09112e-19, cumulative = -1.41929e-14
Courant Number mean: 5.19288e-06 max: 5.19798e-05

Starting time loop


         Umax = 0.000611725 m/s  Uavg = 6.20708e-05 m/s   DP = 1.02989 Pa


min(p): min(p) [1 -1 -2 0 0 0 0] -0.0157955  max(p): max(p) [1 -1 -2 0 0 0 0] 1.01409
Courant Number mean: 5.19288e-06 max: 5.19798e-05
deltaT = 1.05e-07
Time = 1.05e-07

GAMGPCG:  Solving for p, Initial residual = 0.00199229, Final residual = 2.78183e-05, No Iterations 2
GAMGPCG:  Solving for p, Initial residual = 7.15898e-05, Final residual = 1.03878e-06, No Iterations 2
time step continuity errors : sum local = 5.30738e-09, global = 5.80098e-11, cumulative = 5.79956e-11
ExecutionTime = 66.14 s  ClockTime = 74 s  timeStepExecutionTime  = 10.89 s
Courant Number mean: 5.4315e-06 max: 5.44285e-05
deltaT = 1.1025e-07
Time = 2.1525e-07

GAMGPCG:  Solving for p, Initial residual = 0.0389133, Final residual = 0.000401623, No Iterations 2
GAMGPCG:  Solving for p, Initial residual = 0.0018879, Final residual = 5.95805e-06, No Iterations 3
time step continuity errors : sum local = 1.03591e-08, global = 1.09423e-10, cumulative = 1.67419e-10
ExecutionTime = 80.98 s  ClockTime = 91 s  timeStepExecutionTime  = 14.84 s
Courant Number mean: 5.68275e-06 max: 5.70316e-05
deltaT = 1.15763e-07
Time = 3.31013e-07

GAMGPCG:  Solving for p, Initial residual = 0.0525837, Final residual = 0.00050508, No Iterations 2
GAMGPCG:  Solving for p, Initial residual = 0.00244854, Final residual = 7.77874e-06, No Iterations 3
time step continuity errors : sum local = 1.51047e-08, global = 1.5015e-10, cumulative = 3.17569e-10
ExecutionTime = 93.86 s  ClockTime = 105 s  timeStepExecutionTime  = 12.88 s
Courant Number mean: 5.94696e-06 max: 5.98118e-05
deltaT = 1.21551e-07
Time = 4.52563e-07

GAMGPCG:  Solving for p, Initial residual = 0.049066, Final residual = 0.000466923, No Iterations 2
GAMGPCG:  Solving for p, Initial residual = 0.0020906, Final residual = 6.55474e-06, No Iterations 3
time step continuity errors : sum local = 1.948e-08, global = 1.77248e-10, cumulative = 4.94818e-10
ExecutionTime = 106.78 s  ClockTime = 119 s  timeStepExecutionTime  = 12.92 s
Courant Number mean: 6.22458e-06 max: 6.27864e-05
deltaT = 1.27628e-07
Time = 5.80191e-07

ExeTime solve U = 0.07 s
ExeTime - tOldPU = 0.15 s
GAMGPCG:  Solving for p, Initial residual = 0.0342667, Final residual = 0.000172116, No Iterations 2
GAMGPCG:  Solving for p, Initial residual = 0.00108831, Final residual = 2.63462e-06, No Iterations 3
time step continuity errors : sum local = 2.34214e-08, global = 1.89781e-10, cumulative = 6.84598e-10
ExecutionTime = 119.16 s  ClockTime = 134 s  timeStepExecutionTime  = 12.38 s

         Umax = 0.000622758 m/s  Uavg = 6.1339e-05 m/s   DP = 1.57205 Pa


Courant Number mean: 6.51615e-06 max: 6.5965e-05
deltaT = 1.3401e-07
Time = 7.14201e-07

GAMGPCG:  Solving for p, Initial residual = 0.0237164, Final residual = 0.000219163, No Iterations 2
GAMGPCG:  Solving for p, Initial residual = 0.000770056, Final residual = 2.36224e-06, No Iterations 3
time step continuity errors : sum local = 2.69453e-08, global = 1.88814e-10, cumulative = 8.73413e-10
ExecutionTime = 133.65 s  ClockTime = 151 s  timeStepExecutionTime  = 14.44 s
Courant Number mean: 6.82254e-06 max: 6.9349e-05
deltaT = 1.4071e-07
Time = 8.54911e-07

GAMGPCG:  Solving for p, Initial residual = 0.0175027, Final residual = 6.09183e-05, No Iterations 3
GAMGPCG:  Solving for p, Initial residual = 0.000914784, Final residual = 5.50324e-06, No Iterations 3
time step continuity errors : sum local = 3.011e-08, global = 1.77997e-10, cumulative = 1.05141e-09
ExecutionTime = 148.33 s  ClockTime = 168 s  timeStepExecutionTime  = 14.68 s
Courant Number mean: 7.14464e-06 max: 7.29333e-05
deltaT = 1.47746e-07
Time = 1.00266e-06

GAMGPCG:  Solving for p, Initial residual = 0.0145405, Final residual = 6.54735e-05, No Iterations 3
GAMGPCG:  Solving for p, Initial residual = 0.00115437, Final residual = 7.16181e-06, No Iterations 3
time step continuity errors : sum local = 3.29968e-08, global = 1.6257e-10, cumulative = 1.21398e-09
ExecutionTime = 163.19 s  ClockTime = 184 s  timeStepExecutionTime  = 14.86 s
Courant Number mean: 7.48334e-06 max: 7.67097e-05
deltaT = 1.55133e-07
Time = 1.15779e-06

GAMGPCG:  Solving for p, Initial residual = 0.013106, Final residual = 5.66775e-05, No Iterations 3
GAMGPCG:  Solving for p, Initial residual = 0.00119382, Final residual = 7.18924e-06, No Iterations 3
time step continuity errors : sum local = 3.56874e-08, global = 1.47813e-10, cumulative = 1.36179e-09
ExecutionTime = 176.12 s  ClockTime = 199 s  timeStepExecutionTime  = 12.93 s
Courant Number mean: 7.83951e-06 max: 8.06716e-05
deltaT = 1.62889e-07
Time = 1.32068e-06

ExeTime solve U = 0.02 s
ExeTime - tOldPU = 0.08 s
GAMGPCG:  Solving for p, Initial residual = 0.0121384, Final residual = 4.09652e-05, No Iterations 3
GAMGPCG:  Solving for p, Initial residual = 0.00106892, Final residual = 5.95888e-06, No Iterations 3
time step continuity errors : sum local = 3.82532e-08, global = 1.37921e-10, cumulative = 1.49971e-09
ExecutionTime = 190.01 s  ClockTime = 214 s  timeStepExecutionTime  = 13.89 s

         Umax = 0.000629019 m/s  Uavg = 6.08457e-05 m/s   DP = 1.14776 Pa


Courant Number mean: 8.21402e-06 max: 8.48178e-05
deltaT = 1.71034e-07
Time = 1.49171e-06

GAMGPCG:  Solving for p, Initial residual = 0.0113249, Final residual = 0.000126649, No Iterations 2
GAMGPCG:  Solving for p, Initial residual = 0.000925779, Final residual = 2.86923e-06, No Iterations 3
time step continuity errors : sum local = 4.07563e-08, global = 1.35896e-10, cumulative = 1.63561e-09
ExecutionTime = 201.43 s  ClockTime = 226 s  timeStepExecutionTime  = 11.28 s
Courant Number mean: 8.6077e-06 max: 8.91534e-05
deltaT = 1.79586e-07
Time = 1.6713e-06

GAMGPCG:  Solving for p, Initial residual = 0.0105917, Final residual = 0.000114933, No Iterations 2
GAMGPCG:  Solving for p, Initial residual = 0.000736709, Final residual = 1.15232e-05, No Iterations 2
time step continuity errors : sum local = 4.32496e-08, global = 1.42136e-10, cumulative = 1.77774e-09
ExecutionTime = 211.66 s  ClockTime = 238 s  timeStepExecutionTime  = 10.23 s
Courant Number mean: 9.0214e-06 max: 9.36907e-05
deltaT = 1.88565e-07
Time = 1.85986e-06

GAMGPCG:  Solving for p, Initial residual = 0.00993918, Final residual = 5.92333e-05, No Iterations 2
GAMGPCG:  Solving for p, Initial residual = 0.000551747, Final residual = 2.19166e-06, No Iterations 3
time step continuity errors : sum local = 4.57784e-08, global = 1.56205e-10, cumulative = 1.93395e-09
ExecutionTime = 224.67 s  ClockTime = 253 s  timeStepExecutionTime  = 13.01 s
Courant Number mean: 9.45597e-06 max: 9.84464e-05
deltaT = 1.97993e-07
Time = 2.05786e-06

GAMGPCG:  Solving for p, Initial residual = 0.00935259, Final residual = 0.000112838, No Iterations 2
GAMGPCG:  Solving for p, Initial residual = 0.000521191, Final residual = 6.2928e-06, No Iterations 2
time step continuity errors : sum local = 4.83793e-08, global = 1.76186e-10, cumulative = 2.11014e-09
ExecutionTime = 234.64 s  ClockTime = 265 s  timeStepExecutionTime  = 9.97 s
Courant Number mean: 9.91229e-06 max: 0.000103439
deltaT = 2.07893e-07
Time = 2.26575e-06

ExeTime solve U = 0.02 s
ExeTime - tOldPU = 0.1 s
GAMGPCG:  Solving for p, Initial residual = 0.0088133, Final residual = 9.514e-05, No Iterations 2
GAMGPCG:  Solving for p, Initial residual = 0.000468884, Final residual = 1.15127e-06, No Iterations 3
time step continuity errors : sum local = 5.1079e-08, global = 1.99738e-10, cumulative = 2.30987e-09
ExecutionTime = 247.05 s  ClockTime = 279 s  timeStepExecutionTime  = 12.41 s

         Umax = 0.000630797 m/s  Uavg = 6.06832e-05 m/s   DP = 1.10846 Pa


Courant Number mean: 1.03913e-05 max: 0.000108687
deltaT = 2.18287e-07
Time = 2.48404e-06

GAMGPCG:  Solving for p, Initial residual = 0.0083271, Final residual = 9.15725e-05, No Iterations 2
GAMGPCG:  Solving for p, Initial residual = 0.000418458, Final residual = 1.0919e-06, No Iterations 3
time step continuity errors : sum local = 5.38957e-08, global = 2.24774e-10, cumulative = 2.53465e-09
ExecutionTime = 259.16 s  ClockTime = 293 s  timeStepExecutionTime  = 12.03 s
Courant Number mean: 1.08938e-05 max: 0.000114208
deltaT = 2.29202e-07
Time = 2.71324e-06

GAMGPCG:  Solving for p, Initial residual = 0.0078815, Final residual = 8.68049e-05, No Iterations 2
GAMGPCG:  Solving for p, Initial residual = 0.000348904, Final residual = 7.85573e-07, No Iterations 3
time step continuity errors : sum local = 5.68436e-08, global = 2.4979e-10, cumulative = 2.78444e-09
ExecutionTime = 272.12 s  ClockTime = 306 s  timeStepExecutionTime  = 12.96 s
Courant Number mean: 1.1421e-05 max: 0.000120016
deltaT = 2.40662e-07
Time = 2.9539e-06

GAMGPCG:  Solving for p, Initial residual = 0.00747839, Final residual = 3.95097e-05, No Iterations 2
GAMGPCG:  Solving for p, Initial residual = 0.00025698, Final residual = 2.74493e-06, No Iterations 2
time step continuity errors : sum local = 5.9934e-08, global = 2.73981e-10, cumulative = 3.05842e-09
ExecutionTime = 282.29 s  ClockTime = 317 s  timeStepExecutionTime  = 10.17 s
Courant Number mean: 1.19738e-05 max: 0.000126124
deltaT = 2.52695e-07
Time = 3.2066e-06

GAMGPCG:  Solving for p, Initial residual = 0.00712206, Final residual = 7.53315e-05, No Iterations 1
GAMGPCG:  Solving for p, Initial residual = 0.000226286, Final residual = 1.04764e-06, No Iterations 3
time step continuity errors : sum local = 6.31793e-08, global = 2.97135e-10, cumulative = 3.35555e-09
ExecutionTime = 292.4 s  ClockTime = 328 s  timeStepExecutionTime  = 10.11 s
Courant Number mean: 1.25534e-05 max: 0.000132542
deltaT = 2.6533e-07
Time = 3.47193e-06

ExeTime solve U = 0.01 s
ExeTime - tOldPU = 0.11 s
GAMGPCG:  Solving for p, Initial residual = 0.00680902, Final residual = 3.8338e-05, No Iterations 2
GAMGPCG:  Solving for p, Initial residual = 0.000201699, Final residual = 2.70968e-06, No Iterations 2
time step continuity errors : sum local = 6.65896e-08, global = 3.20401e-10, cumulative = 3.67595e-09
ExecutionTime = 302.41 s  ClockTime = 339 s  timeStepExecutionTime  = 10.01 s

         Umax = 0.000634085 m/s  Uavg = 6.03593e-05 m/s   DP = 1.08037 Pa


Courant Number mean: 1.3161e-05 max: 0.00013928
deltaT = 2.78596e-07
Time = 3.75052e-06

GAMGPCG:  Solving for p, Initial residual = 0.00652666, Final residual = 4.28315e-05, No Iterations 2
GAMGPCG:  Solving for p, Initial residual = 0.00019966, Final residual = 4.69461e-07, No Iterations 3
time step continuity errors : sum local = 7.01771e-08, global = 3.44379e-10, cumulative = 4.02033e-09
ExecutionTime = 316.51 s  ClockTime = 353 s  timeStepExecutionTime  = 13.98 s
Courant Number mean: 1.37979e-05 max: 0.00014635
deltaT = 2.92526e-07
Time = 4.04305e-06

GAMGPCG:  Solving for p, Initial residual = 0.00626209, Final residual = 3.94029e-05, No Iterations 2
GAMGPCG:  Solving for p, Initial residual = 0.000196927, Final residual = 4.65657e-07, No Iterations 3
time step continuity errors : sum local = 7.39527e-08, global = 3.69906e-10, cumulative = 4.39024e-09
ExecutionTime = 331.52 s  ClockTime = 371 s  timeStepExecutionTime  = 15.01 s
Courant Number mean: 1.44655e-05 max: 0.000153766
deltaT = 3.07152e-07
Time = 4.3502e-06

GAMGPCG:  Solving for p, Initial residual = 0.00600862, Final residual = 3.35541e-05, No Iterations 2
GAMGPCG:  Solving for p, Initial residual = 0.000193174, Final residual = 4.18651e-07, No Iterations 3
time step continuity errors : sum local = 7.79281e-08, global = 3.97623e-10, cumulative = 4.78786e-09
ExecutionTime = 343.41 s  ClockTime = 385 s  timeStepExecutionTime  = 11.89 s
Courant Number mean: 1.51651e-05 max: 0.000161541
deltaT = 3.2251e-07
Time = 4.67271e-06

GAMGPCG:  Solving for p, Initial residual = 0.00576499, Final residual = 2.71114e-05, No Iterations 2
GAMGPCG:  Solving for p, Initial residual = 0.000190044, Final residual = 2.86731e-06, No Iterations 2
time step continuity errors : sum local = 8.21141e-08, global = 4.27912e-10, cumulative = 5.21578e-09
ExecutionTime = 356.96 s  ClockTime = 400 s  timeStepExecutionTime  = 13.55 s
Courant Number mean: 1.58983e-05 max: 0.000169691
deltaT = 3.38635e-07
Time = 5.01135e-06

ExeTime solve U = 0.03 s
ExeTime - tOldPU = 0.17 s
GAMGPCG:  Solving for p, Initial residual = 0.00553014, Final residual = 2.22438e-05, No Iterations 2
GAMGPCG:  Solving for p, Initial residual = 0.000188156, Final residual = 2.40664e-06, No Iterations 2
time step continuity errors : sum local = 8.65208e-08, global = 4.60894e-10, cumulative = 5.67667e-09
ExecutionTime = 367.09 s  ClockTime = 412 s  timeStepExecutionTime  = 10.13 s

         Umax = 0.000635863 m/s  Uavg = 6.00257e-05 m/s   DP = 1.06725 Pa


Courant Number mean: 1.66666e-05 max: 0.000178233
deltaT = 3.55567e-07
Time = 5.36691e-06

GAMGPCG:  Solving for p, Initial residual = 0.00530383, Final residual = 1.97587e-05, No Iterations 2
GAMGPCG:  Solving for p, Initial residual = 0.000187391, Final residual = 2.0976e-06, No Iterations 2
time step continuity errors : sum local = 9.11589e-08, global = 4.96598e-10, cumulative = 6.17327e-09
ExecutionTime = 378.3 s  ClockTime = 424 s  timeStepExecutionTime  = 11.13 s
Courant Number mean: 1.74716e-05 max: 0.000187183
deltaT = 3.73346e-07
Time = 5.74026e-06

GAMGPCG:  Solving for p, Initial residual = 0.00508543, Final residual = 1.90824e-05, No Iterations 2
GAMGPCG:  Solving for p, Initial residual = 0.000187652, Final residual = 2.01375e-06, No Iterations 2
time step continuity errors : sum local = 9.60394e-08, global = 5.34999e-10, cumulative = 6.70827e-09
ExecutionTime = 389.76 s  ClockTime = 438 s  timeStepExecutionTime  = 11.46 s
Courant Number mean: 1.83151e-05 max: 0.000196558
deltaT = 3.92013e-07
Time = 6.13227e-06

GAMGPCG:  Solving for p, Initial residual = 0.00487507, Final residual = 1.94278e-05, No Iterations 2
GAMGPCG:  Solving for p, Initial residual = 0.000188744, Final residual = 2.11052e-06, No Iterations 2
time step continuity errors : sum local = 1.01173e-07, global = 5.76091e-10, cumulative = 7.28436e-09
ExecutionTime = 400.75 s  ClockTime = 450 s  timeStepExecutionTime  = 10.99 s
Courant Number mean: 1.91988e-05 max: 0.000206376
deltaT = 4.11614e-07
Time = 6.54388e-06

GAMGPCG:  Solving for p, Initial residual = 0.00467304, Final residual = 2.00548e-05, No Iterations 2
GAMGPCG:  Solving for p, Initial residual = 0.000190313, Final residual = 2.27667e-06, No Iterations 2
time step continuity errors : sum local = 1.06573e-07, global = 6.19933e-10, cumulative = 7.90429e-09
ExecutionTime = 412.04 s  ClockTime = 463 s  timeStepExecutionTime  = 11.29 s
Courant Number mean: 2.01246e-05 max: 0.000216655
deltaT = 4.32194e-07
Time = 6.97608e-06

ExeTime solve U = 0.02 s
ExeTime - tOldPU = 0.11 s
GAMGPCG:  Solving for p, Initial residual = 0.00447914, Final residual = 2.05315e-05, No Iterations 2
GAMGPCG:  Solving for p, Initial residual = 0.000192017, Final residual = 2.4425e-06, No Iterations 2
time step continuity errors : sum local = 1.12251e-07, global = 6.66649e-10, cumulative = 8.57094e-09
ExecutionTime = 422.26 s  ClockTime = 476 s  timeStepExecutionTime  = 10.22 s

         Umax = 0.000635873 m/s  Uavg = 5.96588e-05 m/s   DP = 1.05765 Pa


Courant Number mean: 2.10945e-05 max: 0.000227414
deltaT = 4.53804e-07
Time = 7.42988e-06

GAMGPCG:  Solving for p, Initial residual = 0.00429295, Final residual = 2.07262e-05, No Iterations 2
GAMGPCG:  Solving for p, Initial residual = 0.000193586, Final residual = 2.57491e-06, No Iterations 2
time step continuity errors : sum local = 1.18221e-07, global = 7.16412e-10, cumulative = 9.28735e-09
ExecutionTime = 431.76 s  ClockTime = 487 s  timeStepExecutionTime  = 9.41 s
Courant Number mean: 2.21106e-05 max: 0.00023867
deltaT = 4.76494e-07
Time = 7.90638e-06

GAMGPCG:  Solving for p, Initial residual = 0.00411385, Final residual = 2.069e-05, No Iterations 2
GAMGPCG:  Solving for p, Initial residual = 0.000194866, Final residual = 2.67404e-06, No Iterations 2
time step continuity errors : sum local = 1.24496e-07, global = 7.69414e-10, cumulative = 1.00568e-08
ExecutionTime = 442.94 s  ClockTime = 499 s  timeStepExecutionTime  = 11.18 s
Courant Number mean: 2.3175e-05 max: 0.000250443
deltaT = 5.00319e-07
Time = 8.4067e-06

GAMGPCG:  Solving for p, Initial residual = 0.00394155, Final residual = 2.0532e-05, No Iterations 2
GAMGPCG:  Solving for p, Initial residual = 0.000195812, Final residual = 2.74893e-06, No Iterations 2
time step continuity errors : sum local = 1.31094e-07, global = 8.25863e-10, cumulative = 1.08826e-08
ExecutionTime = 453.73 s  ClockTime = 511 s  timeStepExecutionTime  = 10.79 s
Courant Number mean: 2.429e-05 max: 0.000262755
deltaT = 5.25335e-07
Time = 8.93203e-06

GAMGPCG:  Solving for p, Initial residual = 0.00377577, Final residual = 2.03351e-05, No Iterations 2
GAMGPCG:  Solving for p, Initial residual = 0.000196443, Final residual = 2.81259e-06, No Iterations 2
time step continuity errors : sum local = 1.38028e-07, global = 8.85944e-10, cumulative = 1.17686e-08
ExecutionTime = 464.95 s  ClockTime = 524 s  timeStepExecutionTime  = 11.22 s
Courant Number mean: 2.5458e-05 max: 0.000275626
deltaT = 5.51602e-07
Time = 9.48363e-06

ExeTime solve U = 0.03 s
ExeTime - tOldPU = 0.09 s
GAMGPCG:  Solving for p, Initial residual = 0.00361625, Final residual = 2.01362e-05, No Iterations 2
GAMGPCG:  Solving for p, Initial residual = 0.000196804, Final residual = 2.87139e-06, No Iterations 2
time step continuity errors : sum local = 1.45315e-07, global = 9.49853e-10, cumulative = 1.27184e-08
ExecutionTime = 475.15 s  ClockTime = 535 s  timeStepExecutionTime  = 10.2 s

         Umax = 0.000633532 m/s  Uavg = 5.92589e-05 m/s   DP = 1.04978 Pa


Courant Number mean: 2.66816e-05 max: 0.000289078
deltaT = 5.79182e-07
Time = 1.00628e-05

GAMGPCG:  Solving for p, Initial residual = 0.00346284, Final residual = 1.99395e-05, No Iterations 2
GAMGPCG:  Solving for p, Initial residual = 0.00019693, Final residual = 2.92829e-06, No Iterations 2
time step continuity errors : sum local = 1.52973e-07, global = 1.01779e-09, cumulative = 1.37362e-08
ExecutionTime = 487.23 s  ClockTime = 548 s  timeStepExecutionTime  = 11.99 s
Courant Number mean: 2.79633e-05 max: 0.000303134
deltaT = 6.08141e-07
Time = 1.0671e-05

GAMGPCG:  Solving for p, Initial residual = 0.00331529, Final residual = 1.97371e-05, No Iterations 2
GAMGPCG:  Solving for p, Initial residual = 0.000196836, Final residual = 2.98344e-06, No Iterations 2
time step continuity errors : sum local = 1.61021e-07, global = 1.08994e-09, cumulative = 1.48262e-08
ExecutionTime = 499.68 s  ClockTime = 563 s  timeStepExecutionTime  = 12.45 s
Courant Number mean: 2.93059e-05 max: 0.000317818
deltaT = 6.38548e-07
Time = 1.13095e-05

GAMGPCG:  Solving for p, Initial residual = 0.00317345, Final residual = 1.95196e-05, No Iterations 2
GAMGPCG:  Solving for p, Initial residual = 0.000196532, Final residual = 3.03581e-06, No Iterations 2
time step continuity errors : sum local = 1.69476e-07, global = 1.16654e-09, cumulative = 1.59927e-08
ExecutionTime = 510.59 s  ClockTime = 575 s  timeStepExecutionTime  = 10.91 s
Courant Number mean: 3.07124e-05 max: 0.000333155
deltaT = 6.70475e-07
Time = 1.198e-05

GAMGPCG:  Solving for p, Initial residual = 0.00303718, Final residual = 1.92806e-05, No Iterations 2
GAMGPCG:  Solving for p, Initial residual = 0.000196011, Final residual = 3.08663e-06, No Iterations 2
time step continuity errors : sum local = 1.78358e-07, global = 1.24778e-09, cumulative = 1.72405e-08
ExecutionTime = 521.56 s  ClockTime = 588 s  timeStepExecutionTime  = 10.97 s
Courant Number mean: 3.21858e-05 max: 0.000349171
deltaT = 7.03999e-07
Time = 1.2684e-05

ExeTime solve U = 0.02 s
ExeTime - tOldPU = 0.07 s
GAMGPCG:  Solving for p, Initial residual = 0.00290628, Final residual = 1.90142e-05, No Iterations 2
GAMGPCG:  Solving for p, Initial residual = 0.000195266, Final residual = 4.50798e-07, No Iterations 3
time step continuity errors : sum local = 1.87688e-07, global = 1.33391e-09, cumulative = 1.85744e-08
ExecutionTime = 534.87 s  ClockTime = 603 s  timeStepExecutionTime  = 13.31 s

         Umax = 0.000628535 m/s  Uavg = 5.883e-05 m/s   DP = 1.04508 Pa


Courant Number mean: 3.37292e-05 max: 0.000365893
deltaT = 7.39199e-07
Time = 1.34232e-05

GAMGPCG:  Solving for p, Initial residual = 0.00278049, Final residual = 1.88192e-05, No Iterations 2
GAMGPCG:  Solving for p, Initial residual = 0.000194238, Final residual = 4.64473e-07, No Iterations 3
time step continuity errors : sum local = 1.97488e-07, global = 1.42527e-09, cumulative = 1.99997e-08
ExecutionTime = 547.98 s  ClockTime = 617 s  timeStepExecutionTime  = 12.99 s
Courant Number mean: 3.5346e-05 max: 0.00038335
deltaT = 7.76159e-07
Time = 1.41993e-05

GAMGPCG:  Solving for p, Initial residual = 0.00265977, Final residual = 1.85739e-05, No Iterations 2
GAMGPCG:  Solving for p, Initial residual = 0.00019302, Final residual = 4.7616e-07, No Iterations 3
time step continuity errors : sum local = 2.07782e-07, global = 1.52198e-09, cumulative = 2.15216e-08
ExecutionTime = 559.86 s  ClockTime = 630 s  timeStepExecutionTime  = 11.88 s
Courant Number mean: 3.70398e-05 max: 0.000401572
deltaT = 8.14967e-07
Time = 1.50143e-05

GAMGPCG:  Solving for p, Initial residual = 0.00254395, Final residual = 1.82759e-05, No Iterations 2
GAMGPCG:  Solving for p, Initial residual = 0.000191615, Final residual = 4.8525e-07, No Iterations 3
time step continuity errors : sum local = 2.18593e-07, global = 1.62431e-09, cumulative = 2.31459e-08
ExecutionTime = 572.93 s  ClockTime = 643 s  timeStepExecutionTime  = 13.07 s
Courant Number mean: 3.88142e-05 max: 0.000420591
deltaT = 8.55715e-07
Time = 1.587e-05

GAMGPCG:  Solving for p, Initial residual = 0.00243281, Final residual = 1.789e-05, No Iterations 2
GAMGPCG:  Solving for p, Initial residual = 0.000190023, Final residual = 4.90024e-07, No Iterations 3
time step continuity errors : sum local = 2.29949e-07, global = 1.73253e-09, cumulative = 2.48785e-08
ExecutionTime = 586.17 s  ClockTime = 657 s  timeStepExecutionTime  = 13.24 s
Courant Number mean: 4.06731e-05 max: 0.00044044
deltaT = 8.98501e-07
Time = 1.67685e-05

ExeTime solve U = 0.03 s
ExeTime - tOldPU = 0.16 s
GAMGPCG:  Solving for p, Initial residual = 0.00232619, Final residual = 1.74902e-05, No Iterations 2
GAMGPCG:  Solving for p, Initial residual = 0.000188235, Final residual = 4.94155e-07, No Iterations 3
time step continuity errors : sum local = 2.41877e-07, global = 1.84695e-09, cumulative = 2.67254e-08
ExecutionTime = 598.98 s  ClockTime = 671 s  timeStepExecutionTime  = 12.81 s

         Umax = 0.000620955 m/s  Uavg = 5.83789e-05 m/s   DP = 1.04123 Pa


Courant Number mean: 4.26206e-05 max: 0.000461155
deltaT = 9.43426e-07
Time = 1.77119e-05

GAMGPCG:  Solving for p, Initial residual = 0.00222394, Final residual = 1.70782e-05, No Iterations 2
GAMGPCG:  Solving for p, Initial residual = 0.00018625, Final residual = 4.9781e-07, No Iterations 3
time step continuity errors : sum local = 2.54403e-07, global = 1.96787e-09, cumulative = 2.86933e-08
ExecutionTime = 610.51 s  ClockTime = 684 s  timeStepExecutionTime  = 11.34 s
Courant Number mean: 4.46609e-05 max: 0.000482774
deltaT = 9.90597e-07
Time = 1.87025e-05

GAMGPCG:  Solving for p, Initial residual = 0.00212588, Final residual = 1.66513e-05, No Iterations 2
GAMGPCG:  Solving for p, Initial residual = 0.000184072, Final residual = 5.00793e-07, No Iterations 3
time step continuity errors : sum local = 2.67559e-07, global = 2.09562e-09, cumulative = 3.07889e-08
ExecutionTime = 624.52 s  ClockTime = 698 s  timeStepExecutionTime  = 14.01 s
Courant Number mean: 4.67987e-05 max: 0.000505335
deltaT = 1.04013e-06
Time = 1.97427e-05

GAMGPCG:  Solving for p, Initial residual = 0.00203187, Final residual = 1.62097e-05, No Iterations 2
GAMGPCG:  Solving for p, Initial residual = 0.000181713, Final residual = 5.02673e-07, No Iterations 3
time step continuity errors : sum local = 2.81374e-07, global = 2.23052e-09, cumulative = 3.30194e-08
ExecutionTime = 638.19 s  ClockTime = 713 s  timeStepExecutionTime  = 13.67 s
Courant Number mean: 4.90385e-05 max: 0.000528881
deltaT = 1.09213e-06
Time = 2.08348e-05

GAMGPCG:  Solving for p, Initial residual = 0.00194177, Final residual = 1.57541e-05, No Iterations 2
GAMGPCG:  Solving for p, Initial residual = 0.00017919, Final residual = 5.03128e-07, No Iterations 3
time step continuity errors : sum local = 2.95881e-07, global = 2.37293e-09, cumulative = 3.53924e-08
ExecutionTime = 651.25 s  ClockTime = 726 s  timeStepExecutionTime  = 13.06 s
Courant Number mean: 5.13853e-05 max: 0.000553457
deltaT = 1.14674e-06
Time = 2.19815e-05

ExeTime solve U = 0.04 s
ExeTime - tOldPU = 0.14 s
GAMGPCG:  Solving for p, Initial residual = 0.00185547, Final residual = 1.5286e-05, No Iterations 2
GAMGPCG:  Solving for p, Initial residual = 0.000176517, Final residual = 5.03417e-07, No Iterations 3
time step continuity errors : sum local = 3.11116e-07, global = 2.52321e-09, cumulative = 3.79156e-08
ExecutionTime = 664.44 s  ClockTime = 740 s  timeStepExecutionTime  = 13.19 s

         Umax = 0.000611245 m/s  Uavg = 5.79155e-05 m/s   DP = 1.03787 Pa


Courant Number mean: 5.38444e-05 max: 0.000579108
deltaT = 1.20408e-06
Time = 2.31856e-05

GAMGPCG:  Solving for p, Initial residual = 0.00177281, Final residual = 1.48085e-05, No Iterations 2
GAMGPCG:  Solving for p, Initial residual = 0.000173703, Final residual = 5.02868e-07, No Iterations 3
time step continuity errors : sum local = 3.27113e-07, global = 2.68175e-09, cumulative = 4.05973e-08
ExecutionTime = 676.36 s  ClockTime = 753 s  timeStepExecutionTime  = 11.82 s
Courant Number mean: 5.64213e-05 max: 0.000605886
deltaT = 1.26428e-06
Time = 2.44499e-05

GAMGPCG:  Solving for p, Initial residual = 0.00169364, Final residual = 1.43263e-05, No Iterations 2
GAMGPCG:  Solving for p, Initial residual = 0.000170762, Final residual = 5.01441e-07, No Iterations 3
time step continuity errors : sum local = 3.4391e-07, global = 2.84897e-09, cumulative = 4.34463e-08
ExecutionTime = 689.64 s  ClockTime = 768 s  timeStepExecutionTime  = 13.28 s
Courant Number mean: 5.91217e-05 max: 0.000633841
deltaT = 1.32749e-06
Time = 2.57774e-05

GAMGPCG:  Solving for p, Initial residual = 0.00161786, Final residual = 1.38384e-05, No Iterations 2
GAMGPCG:  Solving for p, Initial residual = 0.000167701, Final residual = 4.98862e-07, No Iterations 3
time step continuity errors : sum local = 3.61546e-07, global = 3.02526e-09, cumulative = 4.64716e-08
ExecutionTime = 703.04 s  ClockTime = 781 s  timeStepExecutionTime  = 13.4 s
Courant Number mean: 6.19516e-05 max: 0.000663032
deltaT = 1.39387e-06
Time = 2.71713e-05

GAMGPCG:  Solving for p, Initial residual = 0.00154532, Final residual = 1.33485e-05, No Iterations 2
GAMGPCG:  Solving for p, Initial residual = 0.000164532, Final residual = 4.9571e-07, No Iterations 3
time step continuity errors : sum local = 3.80062e-07, global = 3.21109e-09, cumulative = 4.96827e-08
ExecutionTime = 716.7 s  ClockTime = 796 s  timeStepExecutionTime  = 13.66 s
Courant Number mean: 6.49175e-05 max: 0.000693515
deltaT = 1.46356e-06
Time = 2.86348e-05

ExeTime solve U = 0.03 s
ExeTime - tOldPU = 0.1 s
GAMGPCG:  Solving for p, Initial residual = 0.00147591, Final residual = 1.28592e-05, No Iterations 2
GAMGPCG:  Solving for p, Initial residual = 0.000161267, Final residual = 4.91364e-07, No Iterations 3
time step continuity errors : sum local = 3.99502e-07, global = 3.40693e-09, cumulative = 5.30896e-08
ExecutionTime = 729.08 s  ClockTime = 810 s  timeStepExecutionTime  = 12.38 s

         Umax = 0.000600132 m/s  Uavg = 5.74517e-05 m/s   DP = 1.03495 Pa


Courant Number mean: 6.8026e-05 max: 0.000725355
deltaT = 1.53674e-06
Time = 3.01716e-05

GAMGPCG:  Solving for p, Initial residual = 0.00140951, Final residual = 1.23721e-05, No Iterations 2
GAMGPCG:  Solving for p, Initial residual = 0.000157917, Final residual = 4.86704e-07, No Iterations 3
time step continuity errors : sum local = 4.19912e-07, global = 3.61327e-09, cumulative = 5.67029e-08
ExecutionTime = 740.39 s  ClockTime = 823 s  timeStepExecutionTime  = 11.15 s
Courant Number mean: 7.12841e-05 max: 0.000758617
deltaT = 1.61358e-06
Time = 3.17851e-05

GAMGPCG:  Solving for p, Initial residual = 0.001346, Final residual = 1.18908e-05, No Iterations 2
GAMGPCG:  Solving for p, Initial residual = 0.000154495, Final residual = 4.81394e-07, No Iterations 3
time step continuity errors : sum local = 4.41339e-07, global = 3.83061e-09, cumulative = 6.05335e-08
ExecutionTime = 751.01 s  ClockTime = 835 s  timeStepExecutionTime  = 10.62 s
Courant Number mean: 7.46994e-05 max: 0.000793371
deltaT = 1.69426e-06
Time = 3.34794e-05

GAMGPCG:  Solving for p, Initial residual = 0.00128526, Final residual = 1.14142e-05, No Iterations 2
GAMGPCG:  Solving for p, Initial residual = 0.000151011, Final residual = 4.73861e-07, No Iterations 3
time step continuity errors : sum local = 4.63834e-07, global = 4.05955e-09, cumulative = 6.4593e-08
ExecutionTime = 762.58 s  ClockTime = 848 s  timeStepExecutionTime  = 11.57 s
Courant Number mean: 7.82795e-05 max: 0.00082969
deltaT = 1.77897e-06
Time = 3.52584e-05

GAMGPCG:  Solving for p, Initial residual = 0.00122718, Final residual = 1.0945e-05, No Iterations 2
GAMGPCG:  Solving for p, Initial residual = 0.000147477, Final residual = 4.67293e-07, No Iterations 3
time step continuity errors : sum local = 4.8745e-07, global = 4.30064e-09, cumulative = 6.88937e-08
ExecutionTime = 773.29 s  ClockTime = 861 s  timeStepExecutionTime  = 10.71 s
Courant Number mean: 8.20326e-05 max: 0.000867653
deltaT = 1.86792e-06
Time = 3.71263e-05

ExeTime solve U = 0 s
ExeTime - tOldPU = 0.12 s
GAMGPCG:  Solving for p, Initial residual = 0.00117165, Final residual = 1.0485e-05, No Iterations 2
GAMGPCG:  Solving for p, Initial residual = 0.000143903, Final residual = 4.60166e-07, No Iterations 3
time step continuity errors : sum local = 5.12244e-07, global = 4.55449e-09, cumulative = 7.34482e-08
ExecutionTime = 785.33 s  ClockTime = 874 s  timeStepExecutionTime  = 12.04 s

         Umax = 0.000588432 m/s  Uavg = 5.7e-05 m/s   DP = 1.03244 Pa


Courant Number mean: 8.59674e-05 max: 0.000907341
deltaT = 1.96131e-06
Time = 3.90876e-05

GAMGPCG:  Solving for p, Initial residual = 0.00111856, Final residual = 1.00355e-05, No Iterations 2
GAMGPCG:  Solving for p, Initial residual = 0.000140301, Final residual = 4.52524e-07, No Iterations 3
time step continuity errors : sum local = 5.38274e-07, global = 4.82173e-09, cumulative = 7.82699e-08
ExecutionTime = 798.49 s  ClockTime = 887 s  timeStepExecutionTime  = 13.04 s
Courant Number mean: 9.00929e-05 max: 0.000948843
deltaT = 2.05938e-06
Time = 4.1147e-05

GAMGPCG:  Solving for p, Initial residual = 0.00106781, Final residual = 9.59766e-06, No Iterations 2
GAMGPCG:  Solving for p, Initial residual = 0.000136678, Final residual = 4.44425e-07, No Iterations 3
time step continuity errors : sum local = 5.65603e-07, global = 5.10303e-09, cumulative = 8.33729e-08
ExecutionTime = 810.13 s  ClockTime = 899 s  timeStepExecutionTime  = 11.64 s
Courant Number mean: 9.44187e-05 max: 0.000992248
deltaT = 2.16235e-06
Time = 4.33093e-05

GAMGPCG:  Solving for p, Initial residual = 0.0010193, Final residual = 9.17239e-06, No Iterations 2
GAMGPCG:  Solving for p, Initial residual = 0.000133043, Final residual = 4.35918e-07, No Iterations 3
time step continuity errors : sum local = 5.94293e-07, global = 5.39908e-09, cumulative = 8.8772e-08
ExecutionTime = 823.09 s  ClockTime = 914 s  timeStepExecutionTime  = 12.96 s
Courant Number mean: 9.89546e-05 max: 0.00103765
deltaT = 2.27047e-06
Time = 4.55798e-05

GAMGPCG:  Solving for p, Initial residual = 0.000972944, Final residual = 8.76032e-06, No Iterations 2
GAMGPCG:  Solving for p, Initial residual = 0.000129407, Final residual = 4.27052e-07, No Iterations 3
time step continuity errors : sum local = 6.24414e-07, global = 5.71063e-09, cumulative = 9.44826e-08
ExecutionTime = 836.32 s  ClockTime = 927 s  timeStepExecutionTime  = 13.23 s
Courant Number mean: 0.000103711 max: 0.00108516
deltaT = 2.38399e-06
Time = 4.79638e-05

ExeTime solve U = 0.06 s
ExeTime - tOldPU = 0.16 s
GAMGPCG:  Solving for p, Initial residual = 0.000928638, Final residual = 8.36209e-06, No Iterations 2
GAMGPCG:  Solving for p, Initial residual = 0.000125776, Final residual = 4.17859e-07, No Iterations 3
time step continuity errors : sum local = 6.56037e-07, global = 6.03845e-09, cumulative = 1.00521e-07
ExecutionTime = 848.68 s  ClockTime = 940 s  timeStepExecutionTime  = 12.36 s

         Umax = 0.000576883 m/s  Uavg = 5.65722e-05 m/s   DP = 1.03032 Pa


Courant Number mean: 0.0001087 max: 0.00113488
deltaT = 2.50319e-06
Time = 5.0467e-05

GAMGPCG:  Solving for p, Initial residual = 0.000886298, Final residual = 7.97807e-06, No Iterations 2
GAMGPCG:  Solving for p, Initial residual = 0.00012216, Final residual = 4.08427e-07, No Iterations 3
time step continuity errors : sum local = 6.89238e-07, global = 6.38334e-09, cumulative = 1.06904e-07
ExecutionTime = 861.78 s  ClockTime = 955 s  timeStepExecutionTime  = 13.02 s
Courant Number mean: 0.000113931 max: 0.00118691
deltaT = 2.62835e-06
Time = 5.30953e-05

GAMGPCG:  Solving for p, Initial residual = 0.000845841, Final residual = 7.60876e-06, No Iterations 2
GAMGPCG:  Solving for p, Initial residual = 0.000118567, Final residual = 3.98772e-07, No Iterations 3
time step continuity errors : sum local = 7.24094e-07, global = 6.74617e-09, cumulative = 1.13651e-07
ExecutionTime = 874.93 s  ClockTime = 969 s  timeStepExecutionTime  = 13.15 s
Courant Number mean: 0.000119419 max: 0.00124139
deltaT = 2.75977e-06
Time = 5.58551e-05

GAMGPCG:  Solving for p, Initial residual = 0.000807197, Final residual = 7.25434e-06, No Iterations 2
GAMGPCG:  Solving for p, Initial residual = 0.000115002, Final residual = 3.88943e-07, No Iterations 3
time step continuity errors : sum local = 7.60688e-07, global = 7.12782e-09, cumulative = 1.20778e-07
ExecutionTime = 887.82 s  ClockTime = 982 s  timeStepExecutionTime  = 12.89 s
Courant Number mean: 0.000125174 max: 0.00129843
deltaT = 2.89775e-06
Time = 5.87529e-05

GAMGPCG:  Solving for p, Initial residual = 0.000770282, Final residual = 6.91447e-06, No Iterations 2
GAMGPCG:  Solving for p, Initial residual = 0.000111472, Final residual = 3.78974e-07, No Iterations 3
time step continuity errors : sum local = 7.99108e-07, global = 7.52923e-09, cumulative = 1.28308e-07
ExecutionTime = 901 s  ClockTime = 996 s  timeStepExecutionTime  = 13.18 s
Courant Number mean: 0.000131212 max: 0.00135817
deltaT = 3.04264e-06
Time = 6.17955e-05

ExeTime solve U = 0.02 s
ExeTime - tOldPU = 0.1 s
GAMGPCG:  Solving for p, Initial residual = 0.000735016, Final residual = 6.58873e-06, No Iterations 2
GAMGPCG:  Solving for p, Initial residual = 0.000107984, Final residual = 3.68905e-07, No Iterations 3
time step continuity errors : sum local = 8.39445e-07, global = 7.95139e-09, cumulative = 1.36259e-07
ExecutionTime = 914.22 s  ClockTime = 1009 s  timeStepExecutionTime  = 13.22 s

         Umax = 0.000566038 m/s  Uavg = 5.61777e-05 m/s   DP = 1.02855 Pa


Courant Number mean: 0.000137545 max: 0.00142073
deltaT = 3.19477e-06
Time = 6.49903e-05

GAMGPCG:  Solving for p, Initial residual = 0.000701331, Final residual = 6.2768e-06, No Iterations 2
GAMGPCG:  Solving for p, Initial residual = 0.000104544, Final residual = 3.5877e-07, No Iterations 3
time step continuity errors : sum local = 8.81796e-07, global = 8.39533e-09, cumulative = 1.44654e-07
ExecutionTime = 927.08 s  ClockTime = 1023 s  timeStepExecutionTime  = 12.69 s
Courant Number mean: 0.000144189 max: 0.00148628
deltaT = 3.35451e-06
Time = 6.83448e-05

GAMGPCG:  Solving for p, Initial residual = 0.000669153, Final residual = 5.97846e-06, No Iterations 2
GAMGPCG:  Solving for p, Initial residual = 0.000101154, Final residual = 3.48597e-07, No Iterations 3
time step continuity errors : sum local = 9.26261e-07, global = 8.86214e-09, cumulative = 1.53517e-07
ExecutionTime = 939.16 s  ClockTime = 1035 s  timeStepExecutionTime  = 12.08 s
Courant Number mean: 0.00015116 max: 0.00155495
deltaT = 3.52224e-06
Time = 7.1867e-05

GAMGPCG:  Solving for p, Initial residual = 0.00063842, Final residual = 5.69333e-06, No Iterations 2
GAMGPCG:  Solving for p, Initial residual = 9.78167e-05, Final residual = 3.38422e-07, No Iterations 3
time step continuity errors : sum local = 9.72945e-07, global = 9.35294e-09, cumulative = 1.62869e-07
ExecutionTime = 951 s  ClockTime = 1047 s  timeStepExecutionTime  = 11.84 s
Courant Number mean: 0.000158473 max: 0.00162691
deltaT = 3.69835e-06
Time = 7.55654e-05

GAMGPCG:  Solving for p, Initial residual = 0.000609071, Final residual = 5.42102e-06, No Iterations 2
GAMGPCG:  Solving for p, Initial residual = 9.45376e-05, Final residual = 3.28274e-07, No Iterations 3
time step continuity errors : sum local = 1.02196e-06, global = 9.86895e-09, cumulative = 1.72738e-07
ExecutionTime = 963.73 s  ClockTime = 1059 s  timeStepExecutionTime  = 12.73 s
Courant Number mean: 0.000166147 max: 0.00170233
deltaT = 3.88327e-06
Time = 7.94486e-05

ExeTime solve U = 0.02 s
ExeTime - tOldPU = 0.1 s
GAMGPCG:  Solving for p, Initial residual = 0.000581043, Final residual = 5.16117e-06, No Iterations 2
GAMGPCG:  Solving for p, Initial residual = 9.13213e-05, Final residual = 3.18181e-07, No Iterations 3
time step continuity errors : sum local = 1.07342e-06, global = 1.04114e-08, cumulative = 1.8315e-07
ExecutionTime = 976.53 s  ClockTime = 1073 s  timeStepExecutionTime  = 12.8 s

         Umax = 0.000556242 m/s  Uavg = 5.5823e-05 m/s   DP = 1.02709 Pa


Courant Number mean: 0.000174198 max: 0.00178138
deltaT = 4.07743e-06
Time = 8.35261e-05

GAMGPCG:  Solving for p, Initial residual = 0.00055428, Final residual = 4.9134e-06, No Iterations 2
GAMGPCG:  Solving for p, Initial residual = 8.81688e-05, Final residual = 3.08169e-07, No Iterations 3
time step continuity errors : sum local = 1.12745e-06, global = 1.09816e-08, cumulative = 1.94131e-07
ExecutionTime = 990.04 s  ClockTime = 1086 s  timeStepExecutionTime  = 13.4 s
Courant Number mean: 0.000182647 max: 0.00186424
deltaT = 4.2813e-06
Time = 8.78074e-05

GAMGPCG:  Solving for p, Initial residual = 0.000528727, Final residual = 4.67727e-06, No Iterations 2
GAMGPCG:  Solving for p, Initial residual = 8.50828e-05, Final residual = 2.98258e-07, No Iterations 3
time step continuity errors : sum local = 1.18417e-06, global = 1.1581e-08, cumulative = 2.05712e-07
ExecutionTime = 1003.03 s  ClockTime = 1100 s  timeStepExecutionTime  = 12.99 s
Courant Number mean: 0.000191512 max: 0.00195112
deltaT = 4.49537e-06
Time = 9.23027e-05

GAMGPCG:  Solving for p, Initial residual = 0.000504331, Final residual = 4.45237e-06, No Iterations 2
GAMGPCG:  Solving for p, Initial residual = 8.20652e-05, Final residual = 2.88466e-07, No Iterations 3
time step continuity errors : sum local = 1.24373e-06, global = 1.2211e-08, cumulative = 2.17923e-07
ExecutionTime = 1015.36 s  ClockTime = 1113 s  timeStepExecutionTime  = 12.33 s
Courant Number mean: 0.000200816 max: 0.00204222
deltaT = 4.72014e-06
Time = 9.70229e-05

GAMGPCG:  Solving for p, Initial residual = 0.000481042, Final residual = 4.23829e-06, No Iterations 2
GAMGPCG:  Solving for p, Initial residual = 7.91177e-05, Final residual = 2.78812e-07, No Iterations 3
time step continuity errors : sum local = 1.30626e-06, global = 1.2873e-08, cumulative = 2.30796e-07
ExecutionTime = 1029.05 s  ClockTime = 1128 s  timeStepExecutionTime  = 13.69 s
Courant Number mean: 0.000210579 max: 0.00213774
deltaT = 4.95614e-06
Time = 0.000101979

ExeTime solve U = 0.03 s
ExeTime - tOldPU = 0.15 s
GAMGPCG:  Solving for p, Initial residual = 0.000458811, Final residual = 4.03458e-06, No Iterations 2
GAMGPCG:  Solving for p, Initial residual = 7.62418e-05, Final residual = 2.69311e-07, No Iterations 3
time step continuity errors : sum local = 1.37192e-06, global = 1.35688e-08, cumulative = 2.44365e-07
ExecutionTime = 1041.17 s  ClockTime = 1141 s  timeStepExecutionTime  = 12.12 s

         Umax = 0.000547658 m/s  Uavg = 5.55113e-05 m/s   DP = 1.0259 Pa


Courant Number mean: 0.000220826 max: 0.00223792
deltaT = 5.20395e-06
Time = 0.000107183

GAMGPCG:  Solving for p, Initial residual = 0.000437591, Final residual = 3.8407e-06, No Iterations 2
GAMGPCG:  Solving for p, Initial residual = 7.34386e-05, Final residual = 2.59977e-07, No Iterations 3
time step continuity errors : sum local = 1.44086e-06, global = 1.43e-08, cumulative = 2.58665e-07
ExecutionTime = 1052.25 s  ClockTime = 1153 s  timeStepExecutionTime  = 10.98 s
Courant Number mean: 0.000231579 max: 0.00234299
deltaT = 5.46415e-06
Time = 0.000112647

GAMGPCG:  Solving for p, Initial residual = 0.000417338, Final residual = 3.65626e-06, No Iterations 2
GAMGPCG:  Solving for p, Initial residual = 7.07084e-05, Final residual = 2.50822e-07, No Iterations 3
time step continuity errors : sum local = 1.51323e-06, global = 1.50684e-08, cumulative = 2.73734e-07
ExecutionTime = 1064.22 s  ClockTime = 1167 s  timeStepExecutionTime  = 11.97 s
Courant Number mean: 0.000242866 max: 0.00245321
deltaT = 5.73736e-06
Time = 0.000118384

GAMGPCG:  Solving for p, Initial residual = 0.000398007, Final residual = 3.48077e-06, No Iterations 2
GAMGPCG:  Solving for p, Initial residual = 6.80526e-05, Final residual = 2.41858e-07, No Iterations 3
time step continuity errors : sum local = 1.58923e-06, global = 1.58758e-08, cumulative = 2.89609e-07
ExecutionTime = 1077.04 s  ClockTime = 1181 s  timeStepExecutionTime  = 12.82 s
Courant Number mean: 0.000254711 max: 0.00256882
deltaT = 6.02422e-06
Time = 0.000124409

GAMGPCG:  Solving for p, Initial residual = 0.000379559, Final residual = 3.31383e-06, No Iterations 2
GAMGPCG:  Solving for p, Initial residual = 6.54715e-05, Final residual = 2.33092e-07, No Iterations 3
time step continuity errors : sum local = 1.66902e-06, global = 1.67241e-08, cumulative = 3.06334e-07
ExecutionTime = 1089.49 s  ClockTime = 1195 s  timeStepExecutionTime  = 12.45 s
Courant Number mean: 0.000267145 max: 0.00269011
deltaT = 6.32544e-06
Time = 0.000130734

ExeTime solve U = 0.06 s
ExeTime - tOldPU = 0.18 s
GAMGPCG:  Solving for p, Initial residual = 0.000361957, Final residual = 3.15504e-06, No Iterations 2
GAMGPCG:  Solving for p, Initial residual = 6.29648e-05, Final residual = 2.24514e-07, No Iterations 3
time step continuity errors : sum local = 1.7528e-06, global = 1.76154e-08, cumulative = 3.23949e-07
ExecutionTime = 1102.78 s  ClockTime = 1210 s  timeStepExecutionTime  = 13.29 s

         Umax = 0.000540313 m/s  Uavg = 5.52428e-05 m/s   DP = 1.02494 Pa


Courant Number mean: 0.000280195 max: 0.00281735
deltaT = 6.64171e-06
Time = 0.000137376

GAMGPCG:  Solving for p, Initial residual = 0.000345161, Final residual = 3.00399e-06, No Iterations 2
GAMGPCG:  Solving for p, Initial residual = 6.05321e-05, Final residual = 2.16166e-07, No Iterations 3
time step continuity errors : sum local = 1.84076e-06, global = 1.85518e-08, cumulative = 3.42501e-07
ExecutionTime = 1115.56 s  ClockTime = 1224 s  timeStepExecutionTime  = 12.65 s
Courant Number mean: 0.000293894 max: 0.00295087
deltaT = 6.97379e-06
Time = 0.00014435

GAMGPCG:  Solving for p, Initial residual = 0.000329134, Final residual = 2.86033e-06, No Iterations 2
GAMGPCG:  Solving for p, Initial residual = 5.81733e-05, Final residual = 2.08034e-07, No Iterations 3
time step continuity errors : sum local = 1.93312e-06, global = 1.95356e-08, cumulative = 3.62036e-07
ExecutionTime = 1127.68 s  ClockTime = 1238 s  timeStepExecutionTime  = 12.12 s
Courant Number mean: 0.000308273 max: 0.00309096
deltaT = 7.32248e-06
Time = 0.000151672

GAMGPCG:  Solving for p, Initial residual = 0.000313845, Final residual = 2.72371e-06, No Iterations 2
GAMGPCG:  Solving for p, Initial residual = 5.58881e-05, Final residual = 2.00121e-07, No Iterations 3
time step continuity errors : sum local = 2.0301e-06, global = 2.05691e-08, cumulative = 3.82605e-07
ExecutionTime = 1140.74 s  ClockTime = 1252 s  timeStepExecutionTime  = 13.06 s
Courant Number mean: 0.000323367 max: 0.00323796
deltaT = 7.68861e-06
Time = 0.000159361

GAMGPCG:  Solving for p, Initial residual = 0.000299259, Final residual = 2.59379e-06, No Iterations 2
GAMGPCG:  Solving for p, Initial residual = 5.36762e-05, Final residual = 1.9243e-07, No Iterations 3
time step continuity errors : sum local = 2.13192e-06, global = 2.16549e-08, cumulative = 4.0426e-07
ExecutionTime = 1152.38 s  ClockTime = 1265 s  timeStepExecutionTime  = 11.64 s
Courant Number mean: 0.000339211 max: 0.00339222
deltaT = 8.07304e-06
Time = 0.000167434

ExeTime solve U = 0.01 s
ExeTime - tOldPU = 0.07 s
GAMGPCG:  Solving for p, Initial residual = 0.000285345, Final residual = 2.47027e-06, No Iterations 2
GAMGPCG:  Solving for p, Initial residual = 5.15363e-05, Final residual = 1.84962e-07, No Iterations 3
time step continuity errors : sum local = 2.23883e-06, global = 2.27954e-08, cumulative = 4.27056e-07
ExecutionTime = 1165.14 s  ClockTime = 1280 s  timeStepExecutionTime  = 12.76 s

         Umax = 0.000534144 m/s  Uavg = 5.50153e-05 m/s   DP = 1.02418 Pa


Courant Number mean: 0.000355843 max: 0.00355411
deltaT = 8.47669e-06
Time = 0.00017591

GAMGPCG:  Solving for p, Initial residual = 0.000272072, Final residual = 2.35282e-06, No Iterations 2
GAMGPCG:  Solving for p, Initial residual = 4.94675e-05, Final residual = 1.77718e-07, No Iterations 3
time step continuity errors : sum local = 2.35108e-06, global = 2.39935e-08, cumulative = 4.51049e-07
ExecutionTime = 1176.95 s  ClockTime = 1292 s  timeStepExecutionTime  = 11.66 s
Courant Number mean: 0.000373303 max: 0.00372401
deltaT = 8.90052e-06
Time = 0.000184811

GAMGPCG:  Solving for p, Initial residual = 0.000259412, Final residual = 2.24047e-06, No Iterations 2
GAMGPCG:  Solving for p, Initial residual = 4.74685e-05, Final residual = 1.70683e-07, No Iterations 3
time step continuity errors : sum local = 2.46895e-06, global = 2.5252e-08, cumulative = 4.76301e-07
ExecutionTime = 1189.2 s  ClockTime = 1305 s  timeStepExecutionTime  = 12.25 s
Courant Number mean: 0.000391632 max: 0.00390232
deltaT = 9.34555e-06
Time = 0.000194157

GAMGPCG:  Solving for p, Initial residual = 0.000247338, Final residual = 2.13426e-06, No Iterations 2
GAMGPCG:  Solving for p, Initial residual = 4.55381e-05, Final residual = 1.63884e-07, No Iterations 3
time step continuity errors : sum local = 2.59271e-06, global = 2.6574e-08, cumulative = 5.02875e-07
ExecutionTime = 1202.5 s  ClockTime = 1320 s  timeStepExecutionTime  = 13.3 s
Courant Number mean: 0.000410873 max: 0.00408947
deltaT = 9.81283e-06
Time = 0.000203969

GAMGPCG:  Solving for p, Initial residual = 0.000235823, Final residual = 2.03325e-06, No Iterations 2
GAMGPCG:  Solving for p, Initial residual = 4.36749e-05, Final residual = 1.57305e-07, No Iterations 3
time step continuity errors : sum local = 2.72266e-06, global = 2.79625e-08, cumulative = 5.30838e-07
ExecutionTime = 1215.06 s  ClockTime = 1333 s  timeStepExecutionTime  = 12.56 s
Courant Number mean: 0.000431073 max: 0.00428591
deltaT = 1.03035e-05
Time = 0.000214273

ExeTime solve U = 0.02 s
ExeTime - tOldPU = 0.07 s
GAMGPCG:  Solving for p, Initial residual = 0.000224842, Final residual = 1.93719e-06, No Iterations 2
GAMGPCG:  Solving for p, Initial residual = 4.18777e-05, Final residual = 1.50943e-07, No Iterations 3
time step continuity errors : sum local = 2.8591e-06, global = 2.9421e-08, cumulative = 5.60259e-07
ExecutionTime = 1227.32 s  ClockTime = 1347 s  timeStepExecutionTime  = 12.26 s

         Umax = 0.00052904 m/s  Uavg = 5.48252e-05 m/s   DP = 1.02358 Pa


Courant Number mean: 0.000452279 max: 0.0044921
deltaT = 1.08186e-05
Time = 0.000225091

GAMGPCG:  Solving for p, Initial residual = 0.00021437, Final residual = 1.84585e-06, No Iterations 2
GAMGPCG:  Solving for p, Initial residual = 4.01449e-05, Final residual = 1.44796e-07, No Iterations 3
time step continuity errors : sum local = 3.00236e-06, global = 3.09528e-08, cumulative = 5.91211e-07
ExecutionTime = 1240.66 s  ClockTime = 1362 s  timeStepExecutionTime  = 13.2 s
Courant Number mean: 0.000474543 max: 0.00470852
deltaT = 1.13596e-05
Time = 0.000236451

GAMGPCG:  Solving for p, Initial residual = 0.000204385, Final residual = 1.75899e-06, No Iterations 2
GAMGPCG:  Solving for p, Initial residual = 3.84753e-05, Final residual = 1.38861e-07, No Iterations 3
time step continuity errors : sum local = 3.15279e-06, global = 3.25617e-08, cumulative = 6.23773e-07
ExecutionTime = 1253.08 s  ClockTime = 1375 s  timeStepExecutionTime  = 12.42 s
Courant Number mean: 0.000497915 max: 0.0049357
deltaT = 1.19276e-05
Time = 0.000248379

GAMGPCG:  Solving for p, Initial residual = 0.000194863, Final residual = 1.67638e-06, No Iterations 2
GAMGPCG:  Solving for p, Initial residual = 3.68674e-05, Final residual = 1.33133e-07, No Iterations 3
time step continuity errors : sum local = 3.31073e-06, global = 3.42516e-08, cumulative = 6.58025e-07
ExecutionTime = 1266.18 s  ClockTime = 1390 s  timeStepExecutionTime  = 13.1 s
Courant Number mean: 0.000522454 max: 0.00517418
deltaT = 1.25239e-05
Time = 0.000260903

GAMGPCG:  Solving for p, Initial residual = 0.000185785, Final residual = 1.59782e-06, No Iterations 2
GAMGPCG:  Solving for p, Initial residual = 3.53196e-05, Final residual = 1.27609e-07, No Iterations 3
time step continuity errors : sum local = 3.47657e-06, global = 3.60264e-08, cumulative = 6.94051e-07
ExecutionTime = 1277.79 s  ClockTime = 1402 s  timeStepExecutionTime  = 11.61 s
Courant Number mean: 0.000548215 max: 0.00542451
deltaT = 1.31501e-05
Time = 0.000274053

ExeTime solve U = 0.01 s
ExeTime - tOldPU = 0.07 s
GAMGPCG:  Solving for p, Initial residual = 0.000177129, Final residual = 1.52308e-06, No Iterations 2
GAMGPCG:  Solving for p, Initial residual = 3.38303e-05, Final residual = 1.22284e-07, No Iterations 3
time step continuity errors : sum local = 3.6507e-06, global = 3.78903e-08, cumulative = 7.31941e-07
ExecutionTime = 1289.3 s  ClockTime = 1415 s  timeStepExecutionTime  = 11.51 s

         Umax = 0.000524863 m/s  Uavg = 5.46681e-05 m/s   DP = 1.0231 Pa


End

Finalising parallel run
